pglib-scots/SCOTS-Slack/slack_relative_quadratic/pglib_opf_case89_pegase_scots.m
%%%%%%%%%%%%%%%%%%%%%%%%%%%%%%%%%%%%%%%%%%%%%%%%%%%%%%%%%%%%%%%%%%%%%%%%%%%
%%%%                                                                  %%%%%
%%%%    This is a modified SCOTS-feasible instance adapted from the   %%%%%
%%%%                                :                                 %%%%%
%%%%    IEEE PES Power Grid Library - Optimal Power Flow - v21.07     %%%%%
%%%%          (https://github.com/power-grid-lib/pglib-opf)           %%%%%
%%%%               Benchmark Group - Typical Operations               %%%%%
%%%%                         29 - July - 2021                         %%%%%
%%%%                                                                  %%%%%
%%%%%%%%%%%%%%%%%%%%%%%%%%%%%%%%%%%%%%%%%%%%%%%%%%%%%%%%%%%%%%%%%%%%%%%%%%%
%
%CASE89PEGASE  Power flow data for small part of European system.
%   Please see CASEFORMAT for details on the case file format.
%
%   This case accurately represents the size and complexity of part of the
%   European high voltage transmission network. The network contains 89
%   buses, 12 generators, and 210 branches and it operates at 380, 220, and
%   150 kV. Please note that the data are fictitious and do not correspond
%   to real world data. They can thus be used to validate methods and tools
%   but should not be used for operation and planning of the European grid.
%
%   The data stems from the Pan European Grid Advanced Simulation and State
%   Estimation (PEGASE) project, part of the 7th Framework Program of the
%   European Union (http://www.fp7-pegase.com/). When publishing results
%   based on this data, please cite:
%
%     S. Fliscounakis, P. Panciatici, F. Capitanescu, and L. Wehenkel,
%     "Contingency ranking with respect to overloads in very large power
%     systems taking into account uncertainty, preventive and corrective
%     actions", Power Systems, IEEE Trans. on, (28)4:4909-4917, 2013.
%     http://dx.doi.org/10.1109/TPWRS.2013.2251015
%
%   Remarks:
%
%   1. Line flow limits are 20 MVA (at 1 p.u. voltage) greater than the
%   current flow limits found in PEGASE data.
%  
%   2. PEGASE data contains asymmetric shunt conductance and susceptance in
%   the PI transmission line model of branches. Thus total line charging
%   susceptance of branches is set to 0 p.u. and the nodal representation
%   of shunt condutance and susceptance is used. As a result, power flow
%   equations are left unchanged compared with original PEGASE data.
%   However, line flow constraints in the optimal flow problem are
%   modified.
%
%   3. Identical linear costs are used for all generators to form a loss
%   minimizing OPF objective function.
%
%   4. Since some parts of the network are aggregated, some generators
%   (e.g. with negative PMIN) represent aggregations of multiple loads
%   and generators.
%
%   Cédric Josz, Stéphane Fliscounakis, Jean Maeght, Patrick Panciatici
%   firstname.lastname@rte-france.com
%   Réseau de Transport d'Electricité (French Transmission System Operator)
%   Département Expertise Système, Immeuble "Le Colbert"
%   9 rue de la Porte de Buc, 78000 Versailles Cedex, France
%   March 18th, 2015
%
%   Copyright (c) 2015 by Cédric Josz, Stéphane Fliscounakis, Jean Maeght,
%   and Patrick Panciatici
%   Licensed under the Creative Commons Attribution 4.0 International license,
%   http://creativecommons.org/licenses/by/4.0/
%
%% MATPOWER Case Format : Version 2
function mpc = pglib_opf_case89_pegase
mpc.version = '2';

%%-----  Power Flow Data  -----%%
%% system MVA base
mpc.baseMVA = 100.0;
%% bus data
%    bus_i    type    Pd    Qd    Gs    Bs    area    Vm    Va    baseKV    zone    Vmax    Vmin
mpc.bus = [
	89	1	0.0	0.0	0.19911	4.5306	0	1.0	0.0	380.0	2	1.1	0.9				
	228	1	-23.43	57.4	0.0	0.0	0	1.0	0.0	150.0	2	1.1	0.9				
	271	1	96.7	26.8	0.0	0.0	0	1.0	0.0	150.0	2	1.1	0.9				
	317	1	0.0	0.0	0.04595	-1.82203	0	1.0	0.0	380.0	2	1.1	0.9				
	659	1	0.0	0.0	0.17451	73.97705	0	1.0	0.0	380.0	2	1.1	0.9				
	792	1	295.3	41.9	0.0	0.0	0	1.0	0.0	150.0	2	1.1	0.9				
	913	3	0.0	0.0	0.0	0.0	0	1.0	0.0	380.0	2	1.1	0.9				
	955	1	244.2	152.7	0.0	0.0	0	1.0	0.0	150.0	2	1.1	0.9				
	1037	1	0.0	0.0	0.0	0.55	0	1.0	0.0	380.0	2	1.1	0.9				
	1163	1	0.0	0.0	0.0	16.04	0	1.0	0.0	380.0	2	1.1	0.9				
	1317	1	149.3	-2.0	0.0	20.77	0	1.0	0.0	380.0	2	1.1	0.9				
	1367	1	0.0	0.0	0.17569	-1.5094	0	1.0	0.0	380.0	2	1.1	0.9				
	1445	1	238.4	210.9	0.0	0.0	0	1.0	0.0	220.0	2	1.1	0.9				
	1531	1	0.0	0.0	0.0	0.0	0	1.0	0.0	150.0	2	1.1	0.9				
	1579	1	0.0	0.0	0.0	16.56	0	1.0	0.0	380.0	2	1.1	0.9				
	1611	1	274.1	166.5	0.0	0.56	0	1.0	0.0	150.0	2	1.1	0.9				
	1616	1	0.0	0.0	0.0	14.45	0	1.0	0.0	380.0	2	1.1	0.9				
	1676	1	0.0	0.0	0.17159	-1.4632	0	1.0	0.0	380.0	2	1.1	0.9				
	1815	1	63.66	9.7	0.0	0.0	0	1.0	0.0	220.0	2	1.1	0.9				
	1968	1	118.4	137.0	0.0	0.0	0	1.0	0.0	150.0	2	1.1	0.9				
	2107	2	0.0	0.0	0.0	0.0	0	1.0	0.0	380.0	2	1.1	0.9				
	2154	1	-357.45	33.05	0.29	-5.6	0	1.0	0.0	380.0	2	1.1	0.9				
	2168	1	8.6	-1.48	0.0	0.0	0	1.0	0.0	150.0	2	1.1	0.9				
	2267	2	0.0	0.0	0.0	0.0	0	1.0	0.0	380.0	2	1.1	0.9				
	2268	1	0.0	0.0	0.18317	22.67502	0	1.0	0.0	380.0	2	1.1	0.9				
	2299	1	402.1	110.2	0.0	0.0	0	1.0	0.0	150.0	2	1.1	0.9				
	2441	1	0.0	0.0	0.24253	1.14358	0	1.0	0.0	380.0	2	1.1	0.9				
	2449	1	301.9	-103.2	0.0	0.0	0	1.0	0.0	150.0	2	1.1	0.9				
	2520	1	0.0	0.0	0.05743	3.80797	0	1.0	0.0	380.0	2	1.1	0.9				
	2870	1	0.0	0.0	0.0	0.62	0	1.0	0.0	380.0	2	1.1	0.9				
	2908	1	203.8	61.0	0.0	0.6	0	1.0	0.0	150.0	2	1.1	0.9				
	3097	1	361.91	3.66	0.0	9.39	0	1.0	0.0	380.0	2	1.1	0.9				
	3242	1	296.1	82.3	0.0	0.0	0	1.0	0.0	150.0	2	1.1	0.9				
	3279	1	0.0	0.0	0.0	0.0	0	1.0	0.0	150.0	2	1.1	0.9				
	3493	1	226.3	61.1	0.0	0.0	0	1.0	0.0	150.0	2	1.1	0.9				
	3506	1	0.0	0.0	0.0	0.6	0	1.0	0.0	150.0	2	1.1	0.9				
	3659	2	0.0	0.0	0.0	0.0	0	1.0	0.0	380.0	2	1.1	0.9				
	4014	1	0.0	0.0	0.0	0.0	0	1.0	0.0	150.0	2	1.1	0.9				
	4423	1	0.0	0.0	0.0	0.33	0	1.0	0.0	150.0	2	1.1	0.9				
	4427	1	296.8	77.7	0.0	0.0	0	1.0	0.0	150.0	2	1.1	0.9				
	4495	1	336.3	104.4	0.0	0.0	0	1.0	0.0	150.0	2	1.1	0.9				
	4586	2	0.0	0.0	0.0	0.0	0	1.0	0.0	150.0	2	1.1	0.9				
	4665	1	390.5	62.5	0.0	0.0	0	1.0	0.0	150.0	2	1.1	0.9				
	4929	1	37.0	8.7	0.07044	50.91389	0	1.0	0.0	380.0	2	1.1	0.9				
	5097	2	0.0	0.0	0.0	0.0	0	1.0	0.0	150.0	2	1.1	0.9				
	5155	1	411.3	168.0	0.0	0.0	0	1.0	0.0	150.0	2	1.1	0.9				
	5210	1	347.61	74.37	0.0	0.0	0	1.0	0.0	220.0	2	1.1	0.9				
	5416	1	0.0	0.0	0.0	25.13	0	1.0	0.0	380.0	2	1.1	0.9				
	5509	1	0.0	0.0	0.31406	17.29651	0	1.0	0.0	380.0	2	1.1	0.9				
	5587	1	0.0	0.0	0.0	0.33	0	1.0	0.0	150.0	2	1.1	0.9				
	5762	1	0.0	0.0	0.0	2.23	0	1.0	0.0	380.0	2	1.1	0.9				
	5776	1	222.7	80.5	0.0	0.0	0	1.0	0.0	150.0	2	1.1	0.9				
	5848	1	0.0	0.0	0.29	-0.42	0	1.0	0.0	380.0	2	1.1	0.9				
	5996	1	0.0	0.0	0.16419	4.02383	0	1.0	0.0	380.0	2	1.1	0.9				
	6069	1	-456.66	-131.97	0.28575	35.37107	0	1.0	0.0	380.0	2	1.1	0.9				
	6233	2	0.0	0.0	0.0	0.0	0	1.0	0.0	380.0	2	1.1	0.9				
	6293	1	0.0	0.0	0.0	33.66	0	1.0	0.0	380.0	2	1.1	0.9				
	6542	1	355.98	-147.98	0.0	0.0	0	1.0	0.0	220.0	2	1.1	0.9				
	6704	1	0.0	0.0	0.2111	0.67283	0	1.0	0.0	380.0	2	1.1	0.9				
	6798	2	0.0	0.0	0.0	0.0	0	1.0	0.0	380.0	2	1.1	0.9				
	6826	1	326.9	-82.3	0.0	0.0	0	1.0	0.0	150.0	2	1.1	0.9				
	6833	1	0.0	0.0	0.24636	4.84128	0	1.0	0.0	380.0	2	1.1	0.9				
	7051	1	0.0	0.0	0.0	21.19	0	1.0	0.0	380.0	2	1.1	0.9				
	7180	1	0.0	0.0	0.23423	4.22072	0	1.0	0.0	380.0	2	1.1	0.9				
	7279	2	0.0	0.0	0.0	0.0	0	1.0	0.0	150.0	2	1.1	0.9				
	7526	1	-179.73	-63.08	0.0	0.0	0	1.0	0.0	380.0	2	1.1	0.9				
	7563	1	531.7	-12.8	0.0	0.0	0	1.0	0.0	150.0	2	1.1	0.9				
	7637	1	0.0	0.0	0.29	6.18	0	1.0	0.0	380.0	2	1.1	0.9				
	7762	1	0.0	0.0	0.30424	48.4534	0	1.0	0.0	380.0	2	1.1	0.9				
	7829	1	-114.36	30.04	0.0	0.0	0	1.0	0.0	220.0	2	1.1	0.9				
	7960	2	0.0	0.0	0.0	0.0	0	1.0	0.0	380.0	2	1.1	0.9				
	8103	1	39.34	-10.7	0.0	0.0	0	1.0	0.0	150.0	2	1.1	0.9				
	8179	1	0.0	0.0	0.19446	19.1468	0	1.0	0.0	380.0	2	1.1	0.9				
	8181	1	0.0	0.0	0.21082	6.6206	0	1.0	0.0	380.0	2	1.1	0.9				
	8229	1	0.0	0.0	0.0	0.0	0	1.0	0.0	150.0	2	1.1	0.9				
	8329	1	0.0	0.0	0.14971	2.04987	0	1.0	0.0	380.0	2	1.1	0.9				
	8335	1	637.92	139.57	0.0	0.0	0	1.0	0.0	150.0	2	1.1	0.9				
	8420	1	0.0	0.0	0.0	0.0	0	1.0	0.0	150.0	2	1.1	0.9				
	8574	1	0.0	0.0	0.44784	20.99474	0	1.0	0.0	380.0	2	1.1	0.9				
	8581	1	-1299.13	-140.85	0.0	0.0	0	1.0	0.0	380.0	2	1.1	0.9				
	8605	2	0.0	0.0	0.0	0.0	0	1.0	0.0	380.0	2	1.1	0.9				
	8847	1	0.0	0.0	0.18076	-0.88125	0	1.0	0.0	380.0	2	1.1	0.9				
	8921	1	0.0	0.0	0.0	16.37	0	1.0	0.0	380.0	2	1.1	0.9				
	8964	1	925.91	147.97	0.0	0.0	0	1.0	0.0	150.0	2	1.1	0.9				
	9024	1	0.0	0.0	0.14102	25.246	0	1.0	0.0	380.0	2	1.1	0.9				
	9025	1	0.0	0.0	0.2059	3.0768	0	1.0	0.0	380.0	2	1.1	0.9				
	9064	1	0.0	0.0	0.0	15.26	0	1.0	0.0	380.0	2	1.1	0.9				
	9192	1	17.92	23.3	0.0	0.0	0	1.0	0.0	150.0	2	1.1	0.9				
	9239	2	0.0	0.0	0.0	0.0	0	1.0	0.0	380.0	2	1.1	0.9				
];

%%	 generator data
%    bus    Pg    Qg    Qmax    Qmin    Vg    mBase    status    Pmax    Pmin    Pc1    Pc2    Qc1min    Qc1max    Qc2min    Qc2max    ramp_agc    ramp_10    ramp_30    ramp_q    apf
mpc.gen = [
	913	1133.335	251.085	772.11	-269.94	1.0	100.0	1	1701.652	566.665															
	2107	1000.0	202.14	661.9	-257.62	1.0	100.0	1	1500.004	499.996															
	2267	333.335	74.665	228.16	-78.83	1.0	100.0	1	500.002	-0.0															
	3659	1333.335	330.815	943.64	-282.01	1.0	100.0	1	2000.601	647.041															
	4586	-313.8	31.575	92.96	-29.81	1.0	100.0	1	100.0	-727.6															
	5097	14.155	2.4	8.91	-4.11	1.0	100.0	1	21.23	7.08															
	6233	800.0	177.855	545.68	-189.97	1.0	100.0	1	1200.004	397.819															
	6798	666.665	123.065	429.61	-183.48	1.0	100.0	1	1000.003	331.804															
	7279	-404.465	4.07	14.78	-6.64	1.0	100.0	1	100.008	-908.93															
	7960	400.0	90.49	274.2	-93.22	1.0	100.0	1	600.002	199.45															
	8605	400.0	90.145	273.94	-93.65	1.0	100.0	1	600.002	199.322															
	9239	400.0	90.49	274.2	-93.22	1.0	100.0	1	600.002	199.45															
];

%%	 branch data
%    f_bus    t_bus    r    x    b    rateA    rateB    rateC    ratio    angle    status    angmin    angmax
mpc.branch = [
	3097	659	0.00073	0.00905	0.0	1205.0	3480.0	3480.0	0	0	1	-30.0	30.0								
	9024	4929	0.00192	0.02296	0.0	909.003	1371.0	1371.0	0	0	1	-30.0	30.0								
	1815	6542	0.01431	0.05899	0.0	521.002	521.0	521.0	0	0	1	-30.0	30.0								
	6542	1445	0.02607	0.07168	0.0	415.002	415.0	415.0	0	0	1	-30.0	30.0								
	6069	6833	0.00054	0.00465	0.0	1600.005	6748.0	6748.0	0	0	1	-30.0	30.0								
	6069	2268	0.00126	0.01124	0.0	1633.004	2793.0	2793.0	0	0	1	-30.0	30.0								
	6069	7180	0.00048	0.00527	0.0	1567.0	5970.0	5970.0	0	0	1	-30.0	30.0								
	6069	6293	0.00082	0.00938	0.0	1600.004	3355.0	3355.0	0	0	1	-30.0	30.0								
	1968	9192	0.00028	0.0035	0.0	8992.0	8992.0	8992.0	0	0	1	-30.0	30.0								
	1968	3493	0.69147	4.41471	0.0	8.0	8.0	8.0	0	0	1	-30.0	30.0								
	1968	955	0.02004	0.0916	0.0	337.0	337.0	337.0	0	0	1	-30.0	30.0								
	1968	228	0.84191	4.76844	0.0	7.0	7.0	7.0	0	0	1	-30.0	30.0								
	1968	6826	0.026	0.08948	0.0	339.0	339.0	339.0	0	0	1	-30.0	30.0								
	1968	8964	0.00263	0.01189	0.0	398.073	2595.0	2595.0	0	0	1	-30.0	30.0								
	1968	5776	0.7232	1.944	0.0	16.0	16.0	16.0	0	0	1	-30.0	30.0								
	9192	955	0.15617	0.54676	0.0	56.0	56.0	56.0	0	0	1	-30.0	30.0								
	9192	6826	0.16881	0.58062	0.0	53.0	53.0	53.0	0	0	1	-30.0	30.0								
	9192	8964	0.01922	0.06821	0.0	446.002	446.0	446.0	0	0	1	-30.0	30.0								
	8574	1616	0.00039	0.00386	0.0	1435.004	8142.0	8142.0	0	0	1	-30.0	30.0								
	8574	1163	0.00096	0.01138	0.0	1468.004	2766.0	2766.0	0	0	1	-30.0	30.0								
	8574	9064	0.00037	0.00325	0.0	1435.004	9657.0	9657.0	0	0	1	-30.0	30.0								
	8574	8921	0.00029	0.00339	0.0	1600.004	9284.0	9284.0	0	0	1	-30.0	30.0								
	3493	2299	0.00946	0.15887	0.0	199.0	199.0	199.0	0	0	1	-30.0	30.0								
	2299	4423	0.0	0.00022	0.0	142286.0	142286.0	142286.0	0	0	1	-30.0	30.0								
	6826	2299	0.31295	7.13067	0.0	5.0	5.0	5.0	0	0	1	-30.0	30.0								
	7563	2299	0.24765	1.07591	0.0	29.0	29.0	29.0	0	0	1	-30.0	30.0								
	4427	2299	0.06056	0.18612	0.0	162.0	162.0	162.0	0	0	1	-30.0	30.0								
	8335	2299	2.14249	4.34773	0.0	7.0	7.0	7.0	0	0	1	-30.0	30.0								
	5155	2299	0.07132	1.06889	0.0	30.0	30.0	30.0	0	0	1	-30.0	30.0								
	271	2299	0.02268	0.08652	0.0	354.0	354.0	354.0	0	0	1	-30.0	30.0								
	2449	2299	2.00778	4.49422	0.0	7.0	7.0	7.0	0	0	1	-30.0	30.0								
	4665	2299	0.00618	0.02894	0.0	1068.003	1068.0	1068.0	0	0	1	-30.0	30.0								
	4495	2299	0.02771	0.26095	0.0	121.0	121.0	121.0	0	0	1	-30.0	30.0								
	3493	5587	0.0	0.00022	0.0	319.0	142286.0	142286.0	0	0	1	-30.0	30.0								
	4586	3493	0.00692	0.33738	0.0	94.0	94.0	94.0	0	0	1	-30.0	30.0								
	228	3493	0.02599	0.10048	0.0	305.0	305.0	305.0	0	0	1	-30.0	30.0								
	6826	3493	0.08371	0.8648	0.0	37.0	37.0	37.0	0	0	1	-30.0	30.0								
	7563	3493	0.44738	1.86209	0.0	17.0	17.0	17.0	0	0	1	-30.0	30.0								
	4427	3493	0.06217	0.15319	0.0	192.0	192.0	192.0	0	0	1	-30.0	30.0								
	8335	3493	2.49253	4.72578	0.0	6.0	6.0	6.0	0	0	1	-30.0	30.0								
	5155	3493	0.02027	0.08244	0.0	373.0	373.0	373.0	0	0	1	-30.0	30.0								
	271	3493	0.11416	1.77756	0.0	18.0	18.0	18.0	0	0	1	-30.0	30.0								
	5776	3493	0.57498	2.99258	0.0	11.0	11.0	11.0	0	0	1	-30.0	30.0								
	2449	3493	1.88707	4.96444	0.0	6.0	6.0	6.0	0	0	1	-30.0	30.0								
	4665	3493	0.25078	0.81742	0.0	37.0	37.0	37.0	0	0	1	-30.0	30.0								
	4495	3493	0.00705	0.02961	0.0	1038.003	1038.0	1038.0	0	0	1	-30.0	30.0								
	5587	4586	0.00305	0.02022	0.0	1545.004	1545.0	1545.0	0	0	1	-30.0	30.0								
	4423	4586	0.00291	0.02026	0.0	1544.004	1544.0	1544.0	0	0	1	-30.0	30.0								
	4929	2870	4.0e-5	0.00041	0.0	777.0	76679.0	76679.0	0	0	1	-30.0	30.0								
	4929	659	0.00087	0.01087	0.0	1303.004	2897.0	2897.0	0	0	1	-30.0	30.0								
	4929	1037	4.0e-5	0.00046	0.0	777.0	68410.0	68410.0	0	0	1	-30.0	30.0								
	4929	659	0.00095	0.00924	0.0	1501.004	3401.0	3401.0	0	0	1	-30.0	30.0								
	1815	5210	0.52802	2.63616	0.0	12.0	12.0	12.0	0	0	1	-30.0	30.0								
	1815	1445	0.03203	0.12866	0.0	239.0	239.0	239.0	0	0	1	-30.0	30.0								
	1616	7762	0.00044	0.0032	0.0	1665.005	9780.0	9780.0	0	0	1	-30.0	30.0								
	1616	2520	0.00046	0.00489	0.0	1731.005	6432.0	6432.0	0	0	1	-30.0	30.0								
	9064	7762	0.0003	0.00352	0.0	1600.004	8942.0	8942.0	0	0	1	-30.0	30.0								
	9064	89	0.00051	0.00454	0.0	1665.005	6915.0	6915.0	0	0	1	-30.0	30.0								
	1317	659	0.00068	0.00746	0.0	1633.004	4217.0	4217.0	0	0	1	-30.0	30.0								
	1317	8605	0.00093	0.01022	0.0	1764.005	3079.0	3079.0	0	0	1	-30.0	30.0								
	8605	1367	4.0e-5	0.0004	0.0	1501.004	78577.0	78577.0	0	0	1	-30.0	30.0								
	8605	8921	0.00078	0.00698	0.0	1764.005	4498.0	4498.0	0	0	1	-30.0	30.0								
	1163	1676	4.0e-5	0.00043	0.0	1600.004	73144.0	73144.0	0	0	1	-30.0	30.0								
	1163	7051	0.00025	0.00309	0.0	1698.005	10190.0	10190.0	0	0	1	-30.0	30.0								
	913	7762	0.00047	0.00538	0.0	1633.005	5849.0	5849.0	0	0	1	-30.0	30.0								
	2107	7762	0.00046	0.00548	0.0	1768.73	5744.0	5744.0	0	0	1	-30.0	30.0								
	2107	5996	0.00016	0.00173	0.0	1863.005	18181.0	18181.0	0	0	1	-30.0	30.0								
	2107	6293	0.00166	0.01471	0.0	1764.005	2134.0	2134.0	0	0	1	-30.0	30.0								
	913	7762	0.00051	0.00512	0.0	1797.005	6140.0	6140.0	0	0	1	-30.0	30.0								
	6704	8921	0.00021	0.00248	0.0	1534.004	12692.0	12692.0	0	0	1	-30.0	30.0								
	228	4586	0.00439	0.02169	0.0	306.0	1428.0	1428.0	0	0	1	-30.0	30.0								
	2441	6293	0.00024	0.00289	0.0	1665.005	10893.0	10893.0	0	0	1	-30.0	30.0								
	955	3506	0.0	0.00022	0.0	358.0	142286.0	142286.0	0	0	1	-30.0	30.0								
	955	8964	0.01788	0.10047	0.0	310.0	310.0	310.0	0	0	1	-30.0	30.0								
	3506	2908	0.00646	0.03998	0.0	780.002	780.0	780.0	0	0	1	-30.0	30.0								
	228	6826	0.10615	0.99333	0.0	32.0	32.0	32.0	0	0	1	-30.0	30.0								
	228	5776	0.69978	3.23231	0.0	10.0	10.0	10.0	0	0	1	-30.0	30.0								
	8964	6826	0.25706	0.43592	0.0	63.0	63.0	63.0	0	0	1	-30.0	30.0								
	5776	6826	0.00277	0.01145	0.0	2682.007	2682.0	2682.0	0	0	1	-30.0	30.0								
	659	8329	0.00034	0.00305	0.0	1600.004	10293.0	10293.0	0	0	1	-30.0	30.0								
	659	7051	0.00123	0.01255	0.0	1863.005	2505.0	2505.0	0	0	1	-30.0	30.0								
	659	9239	6.0e-5	0.00065	0.0	1435.004	48391.0	48391.0	0	0	1	-30.0	30.0								
	659	7960	6.0e-5	0.00063	0.0	1534.005	49913.0	49913.0	0	0	1	-30.0	30.0								
	659	6233	6.0e-5	0.00055	0.0	1764.005	57093.0	57093.0	0	0	1	-30.0	30.0								
	659	5416	0.00079	0.00968	0.0	1369.004	3253.0	3253.0	0	0	1	-30.0	30.0								
	659	6798	7.0e-5	0.00079	0.0	39828.0	39828.0	39828.0	0	0	1	-30.0	30.0								
	792	3279	0.0	0.00022	0.0	397.0	142286.0	142286.0	0	0	1	-30.0	30.0								
	7563	792	2.06418	7.54533	0.0	5.0	5.0	5.0	0	0	1	-30.0	30.0								
	7279	792	0.15371	0.48249	0.0	63.0	63.0	63.0	0	0	1	-30.0	30.0								
	8335	792	0.01581	0.12368	0.0	254.0	254.0	254.0	0	0	1	-30.0	30.0								
	2449	792	0.05798	0.36342	0.0	86.0	86.0	86.0	0	0	1	-30.0	30.0								
	4665	792	0.6932	2.19689	0.0	14.0	14.0	14.0	0	0	1	-30.0	30.0								
	4495	792	0.56036	2.39587	0.0	13.0	13.0	13.0	0	0	1	-30.0	30.0								
	5416	2267	0.00024	0.00213	0.0	1298.841	14737.0	14737.0	0	0	1	-30.0	30.0								
	5416	7637	0.00093	0.00884	0.0	1303.0	3554.0	3554.0	0	0	1	-30.0	30.0								
	8964	2168	0.0	0.00022	0.0	374.065	142286.0	142286.0	0	0	1	-30.0	30.0								
	3659	5996	0.00018	0.00204	0.0	1797.005	15425.0	15425.0	0	0	1	-30.0	30.0								
	5762	5996	0.00018	0.00208	0.0	777.0	15130.0	15130.0	0	0	1	-30.0	30.0								
	3242	5097	0.0	0.00022	0.0	142286.0	142286.0	142286.0	0	0	1	-30.0	30.0								
	7563	3242	0.02068	0.09339	0.0	331.0	331.0	331.0	0	0	1	-30.0	30.0								
	4427	3242	0.77778	7.408	0.0	5.0	5.0	5.0	0	0	1	-30.0	30.0								
	3242	7279	0.00884	0.07292	0.0	431.002	431.0	431.0	0	0	1	-30.0	30.0								
	271	3242	0.13167	8.29556	0.0	4.0	4.0	4.0	0	0	1	-30.0	30.0								
	3242	1611	0.08246	0.56822	0.0	56.0	56.0	56.0	0	0	1	-30.0	30.0								
	5097	1611	0.0042	0.02624	0.0	1189.003	1189.0	1189.0	0	0	1	-30.0	30.0								
	8181	8179	0.00031	0.00317	0.0	1271.004	9918.0	9918.0	0	0	1	-30.0	30.0								
	8181	7762	0.00043	0.00498	0.0	1501.004	6320.0	6320.0	0	0	1	-30.0	30.0								
	9025	7762	0.00042	0.00508	0.0	1731.005	6197.0	6197.0	0	0	1	-30.0	30.0								
	7563	4427	0.11067	0.77307	0.0	41.0	41.0	41.0	0	0	1	-30.0	30.0								
	7563	7279	0.00912	0.03761	0.0	817.002	817.0	817.0	0	0	1	-30.0	30.0								
	7563	8335	0.09805	0.59871	0.0	53.0	53.0	53.0	0	0	1	-30.0	30.0								
	7563	5155	0.01903	1.16036	0.0	28.0	28.0	28.0	0	0	1	-30.0	30.0								
	7563	271	0.02407	0.91573	0.0	35.0	35.0	35.0	0	0	1	-30.0	30.0								
	2449	7563	1.48427	4.47911	0.0	7.0	7.0	7.0	0	0	1	-30.0	30.0								
	4665	7563	0.01158	0.06327	0.0	492.002	492.0	492.0	0	0	1	-30.0	30.0								
	4495	7563	0.65489	1.83911	0.0	17.0	17.0	17.0	0	0	1	-30.0	30.0								
	7563	1611	0.02205	0.10076	0.0	307.0	307.0	307.0	0	0	1	-30.0	30.0								
	4427	7279	0.45987	2.60471	0.0	12.0	12.0	12.0	0	0	1	-30.0	30.0								
	4427	8335	2.32022	6.088	0.0	5.0	5.0	5.0	0	0	1	-30.0	30.0								
	4427	5155	0.00637	0.04809	0.0	652.002	652.0	652.0	0	0	1	-30.0	30.0								
	4427	271	0.00663	0.0432	0.0	723.002	723.0	723.0	0	0	1	-30.0	30.0								
	2449	4427	2.56724	6.76711	0.0	5.0	5.0	5.0	0	0	1	-30.0	30.0								
	4665	4427	0.30989	1.21418	0.0	26.0	26.0	26.0	0	0	1	-30.0	30.0								
	4495	4427	0.00919	0.04329	0.0	714.002	714.0	714.0	0	0	1	-30.0	30.0								
	4427	1611	0.69102	5.23956	0.0	6.0	6.0	6.0	0	0	1	-30.0	30.0								
	5210	1445	0.00267	0.01718	0.0	1817.005	1817.0	1817.0	0	0	1	-30.0	30.0								
	8179	5509	0.00074	0.00694	0.0	1271.004	4526.0	4526.0	0	0	1	-30.0	30.0								
	8179	7762	0.00068	0.008	0.0	1567.004	3935.0	3935.0	0	0	1	-30.0	30.0								
	7279	4014	0.0	0.00022	0.0	142286.0	142286.0	142286.0	0	0	1	-30.0	30.0								
	8335	7279	0.00524	0.03063	0.0	1017.003	1017.0	1017.0	0	0	1	-30.0	30.0								
	5155	7279	0.33932	3.81467	0.0	9.0	9.0	9.0	0	0	1	-30.0	30.0								
	271	7279	0.22696	2.61493	0.0	13.0	13.0	13.0	0	0	1	-30.0	30.0								
	2449	7279	0.19067	0.71938	0.0	43.0	43.0	43.0	0	0	1	-30.0	30.0								
	4665	7279	1.05022	2.10556	0.0	14.0	14.0	14.0	0	0	1	-30.0	30.0								
	4495	7279	1.43164	4.29458	0.0	7.0	7.0	7.0	0	0	1	-30.0	30.0								
	1611	7279	0.02262	0.16109	0.0	195.0	195.0	195.0	0	0	1	-30.0	30.0								
	5509	1579	0.00088	0.00895	0.0	1830.0	3513.0	3513.0	0	0	1	-30.0	30.0								
	8335	1531	0.0	0.00022	0.0	319.0	142286.0	142286.0	0	0	1	-30.0	30.0								
	5155	8335	1.82778	7.768	0.0	4.0	4.0	4.0	0	0	1	-30.0	30.0								
	2449	8335	0.02085	0.15338	0.0	205.0	205.0	205.0	0	0	1	-30.0	30.0								
	4665	8335	0.15623	0.65627	0.0	47.0	47.0	47.0	0	0	1	-30.0	30.0								
	4495	8335	0.1765	0.89156	0.0	35.0	35.0	35.0	0	0	1	-30.0	30.0								
	7762	2268	0.00067	0.00777	0.0	1633.004	4051.0	4051.0	0	0	1	-30.0	30.0								
	5155	271	0.00458	0.06189	0.0	509.002	509.0	509.0	0	0	1	-30.0	30.0								
	5155	2908	0.01348	0.05932	0.0	520.002	520.0	520.0	0	0	1	-30.0	30.0								
	4665	5155	0.06639	2.80262	0.0	12.0	12.0	12.0	0	0	1	-30.0	30.0								
	4495	5155	0.19426	2.22044	0.0	15.0	15.0	15.0	0	0	1	-30.0	30.0								
	5155	1611	0.00815	0.07282	0.0	432.002	432.0	432.0	0	0	1	-30.0	30.0								
	271	2908	0.0165	0.05538	0.0	547.002	547.0	547.0	0	0	1	-30.0	30.0								
	4665	271	0.0806	4.63378	0.0	7.0	7.0	7.0	0	0	1	-30.0	30.0								
	4495	271	0.83156	3.72964	0.0	9.0	9.0	9.0	0	0	1	-30.0	30.0								
	271	1611	0.00795	0.07415	0.0	424.002	424.0	424.0	0	0	1	-30.0	30.0								
	1579	5848	0.0004	0.00362	0.0	1633.0	8673.0	8673.0	0	0	1	-30.0	30.0								
	7051	8847	0.00015	0.00177	0.0	1600.004	17783.0	17783.0	0	0	1	-30.0	30.0								
	5776	8229	0.0	0.00022	0.0	142286.0	142286.0	142286.0	0	0	1	-30.0	30.0								
	317	6233	2.0e-5	0.00022	0.0	1698.005	142990.0	142990.0	0	0	1	-30.0	30.0								
	4665	2449	0.02864	0.1729	0.0	181.0	181.0	181.0	0	0	1	-30.0	30.0								
	2449	4495	0.01759	0.1404	0.0	224.0	224.0	224.0	0	0	1	-30.0	30.0								
	4665	4495	0.00752	0.03171	0.0	970.003	970.0	970.0	0	0	1	-30.0	30.0								
	1611	8420	0.0	0.00022	0.0	566.002	142286.0	142286.0	0	0	1	-30.0	30.0								
	9024	6542	0.00074	0.06722	0.0	470.002	470.0	470.0	0.99436	0.0	1	-30.0	30.0								
	9024	6542	0.00079	0.06388	0.0	495.002	495.0	495.0	0.99842	0.0	1	-30.0	30.0								
	6069	9192	0.00061	0.04681	0.0	675.002	675.0	675.0	0.93305	0.0	1	-30.0	30.0								
	6069	1968	0.00059	0.04521	0.0	699.002	699.0	699.0	0.91223	0.0	1	-30.0	30.0								
	7829	1968	0.51919	5.10806	0.0	7.0	7.0	7.0	1.0	0.0	1	-30.0	30.0								
	8574	2299	0.00056	0.03998	0.0	790.002	790.0	790.0	0.91952	0.0	1	-30.0	30.0								
	8574	5587	0.00054	0.04531	0.0	698.002	698.0	698.0	0.94826	0.0	1	-30.0	30.0								
	4929	1815	0.00089	0.06155	0.0	514.002	514.0	514.0	0.99687	0.0	1	-30.0	30.0								
	1815	792	1.46782	7.76489	0.0	4.0	4.0	4.0	1.0	0.0	1	-30.0	30.0								
	6704	4586	0.00059	0.04903	0.0	645.002	645.0	645.0	0.92341	0.0	1	-30.0	30.0								
	2441	3506	0.00042	0.0478	0.0	661.002	661.0	661.0	0.95241	0.0	1	-30.0	30.0								
	1367	6826	0.00076	0.05143	0.0	615.002	615.0	615.0	0.92401	0.0	1	-30.0	30.0								
	1676	228	0.00073	0.0524	0.0	603.002	603.0	603.0	0.93499	0.0	1	-30.0	30.0								
	7829	6826	0.00078	0.06431	0.0	492.002	492.0	492.0	1.0	0.0	1	-30.0	30.0								
	659	3279	0.00089	0.04863	0.0	650.002	650.0	650.0	0.987	0.0	1	-30.0	30.0								
	5210	792	0.00855	0.08972	0.0	351.0	351.0	351.0	1.0	0.0	1	-30.0	30.0								
	1445	792	0.00223	0.04836	0.0	653.002	653.0	653.0	1.0	0.0	1	-30.0	30.0								
	7180	2168	0.00058	0.04311	0.0	678.002	733.0	733.0	0.92404	0.0	1	-30.0	30.0								
	6833	8964	0.00058	0.04327	0.0	711.002	730.0	730.0	0.901	0.0	1	-30.0	30.0								
	3659	3242	0.00059	0.04903	0.0	647.042	645.0	645.0	0.92341	0.0	1	-30.0	30.0								
	8181	4427	0.00056	0.04919	0.0	643.002	643.0	643.0	0.92401	0.0	1	-30.0	30.0								
	9025	7563	0.00057	0.05113	0.0	618.002	618.0	618.0	0.93499	0.0	1	-30.0	30.0								
	2267	5210	0.00042	0.03923	0.0	1298.841	806.0	806.0	0.96706	0.0	1	-30.0	30.0								
	5210	7279	0.23054	1.19773	0.0	26.0	26.0	26.0	1.0	0.0	1	-30.0	30.0								
	5210	8335	0.02284	0.2644	0.0	120.0	120.0	120.0	1.0	0.0	1	-30.0	30.0								
	5210	2449	0.08537	0.7368	0.0	43.0	43.0	43.0	1.0	0.0	1	-30.0	30.0								
	5210	4665	1.40277	3.64029	0.0	9.0	9.0	9.0	1.0	0.0	1	-30.0	30.0								
	5210	4495	1.05023	4.45021	0.0	7.0	7.0	7.0	1.0	0.0	1	-30.0	30.0								
	8179	7279	0.00072	0.04371	0.0	723.002	723.0	723.0	0.93499	0.0	1	-30.0	30.0								
	1445	7279	0.51862	2.31769	0.0	14.0	14.0	14.0	1.0	0.0	1	-30.0	30.0								
	5509	8335	0.00059	0.04566	0.0	692.002	692.0	692.0	0.95596	0.0	1	-30.0	30.0								
	5509	1531	0.0006	0.05096	0.0	620.002	620.0	620.0	0.96812	0.0	1	-30.0	30.0								
	1445	8335	0.04777	0.55418	0.0	57.0	57.0	57.0	1.0	0.0	1	-30.0	30.0								
	7762	5155	0.00059	0.04515	0.0	700.002	700.0	700.0	0.91887	0.0	1	-30.0	30.0								
	7762	271	0.0006	0.04778	0.0	662.002	662.0	662.0	0.94898	0.0	1	-30.0	30.0								
	7829	5776	0.02436	0.27015	0.0	117.0	117.0	117.0	1.0	0.0	1	-30.0	30.0								
	8329	1445	0.0008	0.05727	0.0	552.002	552.0	552.0	0.96702	0.0	1	-30.0	30.0								
	8329	1445	0.00082	0.05606	0.0	564.002	564.0	564.0	0.96702	0.0	1	-30.0	30.0								
	1445	2449	0.1881	1.2919	0.0	25.0	25.0	25.0	1.0	0.0	1	-30.0	30.0								
	1445	4665	2.46632	7.26343	0.0	5.0	5.0	5.0	1.0	0.0	1	-30.0	30.0								
	2268	2908	0.00052	0.05035	0.0	628.002	628.0	628.0	0.93462	0.0	1	-30.0	30.0								
	8847	5776	0.00068	0.04964	0.0	637.002	637.0	637.0	0.91303	0.0	1	-30.0	30.0								
	8847	8103	0.00099	0.04736	0.0	667.0	667.0	667.0	1.01215	0.0	1	-30.0	30.0								
	317	2449	0.00062	0.04876	0.0	648.002	648.0	648.0	0.93305	0.0	1	-30.0	30.0								
	7637	8581	9.0e-5	0.0155	0.0	1698.0	2038.0	2038.0	1.0	-0.42819	1	-30.0	30.0								
	5848	7526	9.0e-5	0.00963	0.0	1698.0	3280.0	3280.0	1.0	0.17858	1	-30.0	30.0								
	89	4495	0.00066	0.04561	0.0	693.002	693.0	693.0	0.92401	0.0	1	-30.0	30.0								
	2520	4665	0.00065	0.04486	0.0	705.002	705.0	705.0	0.93305	0.0	1	-30.0	30.0								
	5996	8420	0.00067	0.04326	0.0	731.002	731.0	731.0	0.92341	0.0	1	-30.0	30.0								
	2154	5996	9.0e-5	0.0099	0.0	1698.0	3191.0	3191.0	1.0	-0.15318	1	-30.0	30.0								
];

%%-----	  OPF Data  -----%%
%% cost data
%    1    startup    shutdown    n    x1    y1    ...    xn    yn
%    2    startup    shutdown    n    c(n-1)    ...    c0
mpc.gencost = [
	2	0.0	0.0	2	6.58654	0.0
	2	0.0	0.0	2	34.79485	0.0
	2	0.0	0.0	2	42.29385	0.0
	2	0.0	0.0	2	32.58324	0.0
	2	0.0	0.0	2	16.76247	0.0
	2	0.0	0.0	2	27.70703	0.0
	2	0.0	0.0	2	8.39833	0.0
	2	0.0	0.0	2	37.99234	0.0
	2	0.0	0.0	2	20.76084	0.0
	2	0.0	0.0	2	22.51779	0.0
	2	0.0	0.0	2	31.27129	0.0
	2	0.0	0.0	2	17.65534	0.0
];

	 